Version 4.1
SHEET 1 5000 852
WIRE 448 -64 272 -64
WIRE 592 -64 528 -64
WIRE 752 -64 672 -64
WIRE 1440 0 1104 0
WIRE 1808 0 1504 0
WIRE -96 64 -608 64
WIRE 2400 64 2080 64
WIRE 2784 64 2480 64
WIRE -944 80 -1104 80
WIRE 128 112 96 112
WIRE 272 112 272 -64
WIRE 272 112 208 112
WIRE 512 112 432 112
WIRE 592 112 592 48
WIRE -1552 128 -1552 80
WIRE -1360 128 -1360 80
WIRE 752 176 752 -64
WIRE 960 176 752 176
WIRE 1104 176 1104 0
WIRE 1104 176 1040 176
WIRE 1120 176 1104 176
WIRE 1360 176 1200 176
WIRE 1504 176 1360 176
WIRE 1584 176 1584 112
WIRE -944 208 -944 80
WIRE -384 208 -944 208
WIRE -304 208 -304 144
WIRE 1776 240 1744 240
WIRE 1808 240 1808 0
WIRE 1808 240 1776 240
WIRE 1952 240 1808 240
WIRE 2080 240 2080 64
WIRE 2080 240 2016 240
WIRE 2112 240 2080 240
WIRE 2336 240 2176 240
WIRE 2480 240 2336 240
WIRE 2560 240 2560 176
WIRE -96 272 -96 64
WIRE -96 272 -144 272
WIRE 96 272 96 112
WIRE 96 272 -96 272
WIRE 272 272 272 112
WIRE 512 272 272 272
WIRE -1552 288 -1552 208
WIRE -1552 288 -1648 288
WIRE -1360 288 -1360 208
WIRE -1360 288 -1456 288
WIRE 2752 304 2720 304
WIRE 2784 304 2784 64
WIRE 2784 304 2752 304
WIRE 3152 304 2784 304
WIRE -1552 320 -1552 288
WIRE -1360 320 -1360 288
WIRE 3296 320 3296 144
WIRE 1504 336 1440 336
WIRE -384 368 -448 368
WIRE 608 368 608 272
WIRE 3456 368 3376 368
WIRE 3568 368 3456 368
WIRE -608 384 -608 64
WIRE -448 384 -448 368
WIRE -448 384 -608 384
WIRE 3568 384 3568 368
WIRE -1104 400 -1104 80
WIRE 432 400 432 112
WIRE 2480 400 2416 400
WIRE 1360 432 1360 176
WIRE 1600 432 1600 336
WIRE 3152 432 3008 432
WIRE -288 464 -288 368
WIRE -1552 496 -1552 400
WIRE -1360 496 -1360 400
WIRE 2336 496 2336 240
WIRE 2576 496 2576 400
WIRE 3264 512 3264 432
WIRE -1104 528 -1104 480
WIRE 1360 544 1360 496
WIRE 1440 544 1440 336
WIRE 1776 544 1776 240
WIRE 1776 544 1440 544
WIRE 3120 576 3088 576
WIRE 3232 576 3232 448
WIRE 3232 576 3200 576
WIRE 3296 576 3296 416
WIRE 2336 608 2336 576
WIRE 2416 608 2416 400
WIRE 2752 608 2752 304
WIRE 2752 608 2416 608
WIRE 3008 688 3008 432
WIRE 3072 688 3008 688
WIRE 3328 688 3072 688
WIRE 3456 688 3456 368
WIRE 3456 688 3408 688
WIRE 3072 720 3072 688
FLAG -1456 288 0
FLAG -1360 80 +Vin_P
FLAG 592 48 +Vin
FLAG -1360 496 -Vin_P
FLAG 608 368 -Vin
FLAG 1584 112 +Vin
FLAG 1600 432 -Vin
FLAG 1360 544 0
FLAG -304 144 +Vin
FLAG -288 464 -Vin
FLAG -1104 528 0
FLAG 2560 176 +Vin
FLAG 2576 496 -Vin_P
FLAG 2336 608 0
FLAG 3296 576 -Vin_P
FLAG 3296 144 +Vin_P
FLAG 3264 512 0
FLAG 3568 464 0
FLAG 3088 576 -Vin_P
FLAG 3072 800 0
FLAG -1648 288 0
FLAG -1552 80 +Vin
FLAG -1552 496 -Vin
FLAG 3232 640 0
FLAG 432 400 0
SYMBOL OPA132 624 192 R0
SYMATTR InstName U1
SYMBOL voltage -1360 304 R0
WINDOW 123 0 0 Left 0
WINDOW 39 0 0 Left 0
SYMATTR InstName V1
SYMATTR Value 36
SYMBOL voltage -1360 112 R0
WINDOW 123 0 0 Left 0
WINDOW 39 0 0 Left 0
SYMATTR InstName V2
SYMATTR Value 36
SYMBOL res 544 -80 R90
WINDOW 0 0 56 VBottom 2
WINDOW 3 32 56 VTop 2
SYMATTR InstName R2
SYMATTR Value 0.5
SYMBOL res 224 96 R90
WINDOW 0 0 56 VBottom 2
WINDOW 3 32 56 VTop 2
SYMATTR InstName R1
SYMATTR Value 2k
SYMBOL OPA132 1616 256 R0
SYMATTR InstName U2
SYMBOL res 1216 160 R90
WINDOW 0 0 56 VBottom 2
WINDOW 3 32 56 VTop 2
SYMATTR InstName R7
SYMATTR Value 6.8k
SYMBOL cap 1344 432 R0
SYMATTR InstName C1
SYMATTR Value 1n
SYMBOL cap 1504 -16 R90
WINDOW 0 0 32 VBottom 2
WINDOW 3 32 32 VTop 2
SYMATTR InstName C2
SYMATTR Value 2.2n
SYMBOL res 1056 160 R90
WINDOW 0 0 56 VBottom 2
WINDOW 3 32 56 VTop 2
SYMATTR InstName R5
SYMATTR Value 3.9k
SYMBOL OPA132 -272 288 R0
SYMATTR InstName U3
SYMBOL voltage -1104 384 R0
WINDOW 123 24 124 Left 2
WINDOW 39 0 0 Left 0
SYMATTR InstName V5
SYMATTR Value SINE(0 1 1k 0 0 0)
SYMBOL OPA132 2592 320 R0
SYMATTR InstName U4
SYMBOL cap 2016 224 R90
WINDOW 0 0 32 VBottom 2
WINDOW 3 32 32 VTop 2
SYMATTR InstName C3
SYMATTR Value 220n
SYMBOL cap 2176 224 R90
WINDOW 0 0 32 VBottom 2
WINDOW 3 32 32 VTop 2
SYMATTR InstName C4
SYMATTR Value 120n
SYMBOL res 2320 480 R0
SYMATTR InstName R6
SYMATTR Value 3.9k
SYMBOL res 2496 48 R90
WINDOW 0 0 56 VBottom 2
WINDOW 3 32 56 VTop 2
SYMATTR InstName R11
SYMATTR Value 1.8k
SYMBOL LM3886 3264 384 R0
SYMATTR InstName U5
SYMBOL res 3584 480 R180
WINDOW 0 36 76 Left 2
WINDOW 3 36 40 Left 2
SYMATTR InstName R16
SYMATTR Value 8
SYMBOL res 3216 560 R90
WINDOW 0 0 56 VBottom 2
WINDOW 3 32 56 VTop 2
SYMATTR InstName R18
SYMATTR Value 100
SYMBOL res 3424 672 R90
WINDOW 0 0 56 VBottom 2
WINDOW 3 43 56 VTop 2
SYMATTR InstName R17
SYMATTR Value 2k
SYMBOL res 3056 704 R0
SYMATTR InstName R4
SYMATTR Value 366.9
SYMBOL voltage -1552 304 R0
WINDOW 123 0 0 Left 0
WINDOW 39 0 0 Left 0
SYMATTR InstName V3
SYMATTR Value 12
SYMBOL voltage -1552 112 R0
WINDOW 123 0 0 Left 0
WINDOW 39 0 0 Left 0
SYMATTR InstName V4
SYMATTR Value 12
SYMBOL res 688 -80 R90
WINDOW 0 0 56 VBottom 2
WINDOW 3 32 56 VTop 2
SYMATTR InstName R3
SYMATTR Value 10k
TEXT 56 360 Left 2 ;.tran 0 .02 .018 .001
TEXT 56 392 Left 2 !.ac dec 10 1 100k
